version 2
1
1
.ac dec 10 1 1Meg{return}{return}.kicad adjustpaths{return}.save all{return}.probe alli
3
5
V(/RCline)
 
9
V(/RCline)
 
5
V(Net-_C1-Pad1_)
 
