version 2
1
1
.ac dec 10 1 10k{return}.kicad adjustpaths{return}.save all{return}.probe alli
4
6
I(C1)
 
10
I(C1)
 
5
V(/RCline)
 
9
V(/RCline)
 
